# generated using pymatgen
data_TmFeGe2O7
_symmetry_space_group_name_H-M   'P 1'
_cell_length_a   10.79212771
_cell_length_b   8.72532128
_cell_length_c   6.63022257
_cell_angle_alpha   90.00000000
_cell_angle_beta   116.29930158
_cell_angle_gamma   90.00000000
_symmetry_Int_Tables_number   1
_chemical_formula_structural   TmFeGe2O7
_chemical_formula_sum   'Tm4 Fe4 Ge8 O28'
_cell_volume   559.70984669
_cell_formula_units_Z   4
loop_
 _symmetry_equiv_pos_site_id
 _symmetry_equiv_pos_as_xyz
  1  'x, y, z'
loop_
 _atom_site_type_symbol
 _atom_site_label
 _atom_site_symmetry_multiplicity
 _atom_site_fract_x
 _atom_site_fract_y
 _atom_site_fract_z
 _atom_site_occupancy
  Tm  Tm0  1  0.500000  0.700737  0.500000  1
  Tm  Tm1  1  0.000000  0.799263  0.500000  1
  Tm  Tm2  1  0.000000  0.200737  0.500000  1
  Tm  Tm3  1  0.500000  0.299263  0.500000  1
  Fe  Fe4  1  0.500000  0.803221  0.000000  1
  Fe  Fe5  1  0.000000  0.696779  0.000000  1
  Fe  Fe6  1  0.000000  0.303221  0.000000  1
  Fe  Fe7  1  0.500000  0.196779  0.000000  1
  Ge  Ge8  1  0.283284  0.500000  0.987445  1
  Ge  Ge9  1  0.216716  0.000000  0.012555  1
  Ge  Ge10  1  0.305004  0.000000  0.579248  1
  Ge  Ge11  1  0.194996  0.500000  0.420752  1
  Ge  Ge12  1  0.783284  0.000000  0.987445  1
  Ge  Ge13  1  0.716716  0.500000  0.012555  1
  Ge  Ge14  1  0.805004  0.500000  0.579248  1
  Ge  Ge15  1  0.694996  0.000000  0.420752  1
  O  O16  1  0.390101  0.663754  0.102261  1
  O  O17  1  0.609899  0.663754  0.897739  1
  O  O18  1  0.109899  0.836246  0.897739  1
  O  O19  1  0.890101  0.836246  0.102261  1
  O  O20  1  0.136232  0.500000  0.048916  1
  O  O21  1  0.363768  0.000000  0.951084  1
  O  O22  1  0.368395  0.500000  0.467986  1
  O  O23  1  0.131605  0.000000  0.532014  1
  O  O24  1  0.105971  0.676890  0.332540  1
  O  O25  1  0.894029  0.676890  0.667460  1
  O  O26  1  0.605971  0.823110  0.332540  1
  O  O27  1  0.394029  0.823110  0.667460  1
  O  O28  1  0.311922  0.000000  0.308870  1
  O  O29  1  0.188078  0.500000  0.691130  1
  O  O30  1  0.890101  0.163754  0.102261  1
  O  O31  1  0.109899  0.163754  0.897739  1
  O  O32  1  0.609899  0.336246  0.897739  1
  O  O33  1  0.390101  0.336246  0.102261  1
  O  O34  1  0.636232  0.000000  0.048916  1
  O  O35  1  0.863768  0.500000  0.951084  1
  O  O36  1  0.868395  0.000000  0.467986  1
  O  O37  1  0.631605  0.500000  0.532014  1
  O  O38  1  0.605971  0.176890  0.332540  1
  O  O39  1  0.394029  0.176890  0.667460  1
  O  O40  1  0.105971  0.323110  0.332540  1
  O  O41  1  0.894029  0.323110  0.667460  1
  O  O42  1  0.811922  0.500000  0.308870  1
  O  O43  1  0.688078  0.000000  0.691130  1
